70

   O        10.246247859890397        -1.549013338340406        -0.714668372584344
   O         8.338061202391279        -2.818885309290349         0.349182113874188
   O         8.179729736762605        -0.328452114767815        -0.215870671812394
   H        10.413207741737837        -0.835551824169499        -1.350268008558474
   O         7.672813505246004         3.603831565030040         1.102883283942984
   H         7.134122406837827         0.651162629453557         2.114424216074474
   P         8.787304949424167        -1.761941596183961        -0.583962056700076
   C         8.070820081313263         0.668293475643258        -1.247264347838182
   H         8.729232987260398        -3.667522949478626         0.089006454217135
   H         9.075775298737398         0.877762113277747        -1.614032531872143
   H         7.450023970339468         0.317033779397498        -2.071832000849836
   C         7.471940014448828         1.940724997060390        -0.677989643660548
   H         7.643714259494756         2.804459438443887        -1.319739145808264
   O         6.060766985599662         1.741668823697047        -0.716607288521550
   C         7.783476494499672         2.221493455546079         0.791789963735440
   H         8.759617582531689         1.850104636880937         1.105668796449879
   H         7.859816309094094         3.829974215109623         2.017273492315721
   H         6.142651921977572         2.126920373193994         2.182727652599360
   C         6.685721675328644         1.449613606472826         1.523409985045300
   C         5.502353699262549         1.606854772833111         0.574288049347420
   N         4.620908338627530         0.407581864391068         0.512259287535148
   H         5.987918202414124        -1.207802327564047         0.770865058336352
   C         4.961325862902797        -0.922913643233987         0.594846292298902
   N         3.950557444935412        -1.731812254317993         0.505441358284730
   H         4.811808644979497         2.405321040136566         0.844965251903723
   C         3.259792162980128         0.416447198534904         0.354293587962395
   N         2.469984880373421         1.502271070526871         0.227687998220940
   C         2.858934391187626        -0.888386754153811         0.351572796846217
   H         1.548473279626790        -3.175269105740647         0.275219767519264
   N         0.952569112223912        -2.365609704726396         0.179931375670483
   C         1.484625307125534        -1.135263312074597         0.201025440132134
   N         0.674722632808871        -0.069214269591530         0.071943694111810
   C         1.209581828380950         1.151105760180759         0.093822127523502
   H        -0.044004972499985        -2.482932687027748         0.069109845809883
   O        -1.885764522082868        -2.701158836884121        -0.175113635942219
   H         0.577639815763172         2.021178090209894        -0.006902413707841
   O        -2.423928308454725         1.806471968315709        -0.287795768738213
   H        -1.107608499424811        -0.327090279564787        -0.113789174683334
   N        -2.183747242308767        -0.451511945525872        -0.235006562477367
   C        -2.659686175691461        -1.746055133208025        -0.275169566800662
   C        -2.936429829692369         0.702366907817637        -0.334477736473629
   H        -4.420133597914670         2.502447198637245        -0.886410771148799
   C        -4.089982604249534        -1.843375794127316        -0.439187295757806
   C        -4.846088721931591        -0.737475516714149        -0.539237859080799
   H        -3.902016958778110        -3.963735326586585        -0.393751965544124
   C        -4.690257275316295        -3.217495156889298        -0.493816007606939
   H        -5.405309342645501        -3.334854151450452         0.320351301613854
   C        -5.136466114718850         1.732100214009800        -0.600700693194954
   H        -5.199927213685159        -3.353883130588829        -1.447283298369037
   N        -4.288966275888954         0.512117174612054        -0.489191022021844
   H        -5.907057601567417        -0.848030928371046        -0.705705685995405
   C        -6.324322754825292         1.569439767432594        -1.543279698729419
   H        -5.762849478908799         2.203729613755145        -2.229423379953485
   H        -7.118025799300386         0.606664029767342         2.094818479736097
   H        -6.795279023137216         0.760385139440959        -2.101415705687423
   H        -7.127567617394371        -2.669178055545831        -0.192046344165506
   C        -7.095195473757541         2.171992016075083         0.635751287480251
   P        -8.513939952412109        -1.493075413647202         0.692415560845966
   O        -5.690138249663347         1.935182241811092         0.683283674688907
   C        -7.729199336737689         0.941193416256332         1.256224420186618
   H        -7.242310120731815         3.065717060766939         1.241555567042697
   C        -7.399578145494081         2.401066753208525        -0.844456114863682
   H        -7.431480186089071         3.959611961726160        -2.134714652061786
   H        -8.385930944217886         2.044679402440869        -1.143449781456349
   H        -8.727674045453568         1.193582732300349         1.613546248797147
   O        -7.866612008843231        -0.093436235485675         0.266378350698527
   O        -8.095050795952069        -2.599466358030610        -0.196482044498195
   H       -10.419990928216011        -2.051601282390786         1.071916974652597
   O        -7.250368753793936         3.765883744825286        -1.211736847849566
   O        -9.966262083418826        -1.234148792407953         0.813471054739196
